LAMMPS (27 Jun 2024)
KOKKOS mode with Kokkos version 4.3.1 is enabled (src/KOKKOS/kokkos.cpp:72)
  will use up to 1 GPU(s) per node
package kokkos
package kokkos newton on neigh half

units		metal						## E in [eV], t in [ps], P in [10000 Pa], l in [A]
atom_style	atomic						## mass x y z vx vy vz

neighbor	0.5 bin						## neighbor list, skin = 0.5 Angstrom
neigh_modify	every 2 delay 10 check yes			## update of neighbor list

############################## main variables
variable        seed equal 67391

variable	temperature equal 410
variable	tempDamp equal 0.1

variable        pressure equal 15000
variable        pressureDamp equal 1.0 				# This is 1 ps

##############################

read_data water.dat
Reading data file ...
  orthogonal box = (0 0 0) to (20.676781 20.679892 34.741558)
  reading atoms ...
  2160 atoms

mass		1 1.008    # H
mass		2 15.9994  # O

pair_style	pace/extrapolation
ACE/AL version: 2023.11.25
pair_coeff	* * /pc2/users/a/acepdw01/work/phase_diagram/pot_dir/interim_potential_ladder_step_1.yaml /pc2/users/a/acepdw01/work/phase_diagram/pot_dir/interim_potential_ladder_step_1.asi H O
Loading /pc2/users/a/acepdw01/work/phase_diagram/pot_dir/interim_potential_ladder_step_1.yaml
Total number of basis functions
	H: 23 (r=1) 664 (r>1)
	O: 23 (r=1) 664 (r>1)
Mapping LAMMPS atom type #1(H) -> ACE species type #0
Mapping LAMMPS atom type #2(O) -> ACE species type #1
Loading ASI /pc2/users/a/acepdw01/work/phase_diagram/pot_dir/interim_potential_ladder_step_1.asi
LINEAR ASI is loaded

fix pace_gamma all pair 1000 pace/extrapolation gamma 1
compute max_pace_gamma all reduce max f_pace_gamma
variable dump_skip equal "c_max_pace_gamma < 10"

dump pace_dump all custom 1000 extrapolative_structures.dump id type x y z f_pace_gamma
dump_modify pace_dump skip v_dump_skip
dump_modify pace_dump element H O

variable max_pace_gamma equal c_max_pace_gamma

timestep	0.0005						## timestep = 0.0005*ps = 0.5 fs

thermo		100
thermo_style custom step etotal pe ke press temp vol density c_max_pace_gamma

min_style cg
minimize 0.0 5.0e-4 10000 100000

CITE-CITE-CITE-CITE-CITE-CITE-CITE-CITE-CITE-CITE-CITE-CITE-CITE

Your simulation uses code contributions which should be cited:

- Type Label Framework: https://doi.org/10.1021/acs.jpcb.3c08419

@Article{Gissinger24,
 author = {Jacob R. Gissinger, Ilia Nikiforov, Yaser Afshar, Brendon Waters, Moon-ki Choi, Daniel S. Karls, Alexander Stukowski, Wonpil Im, Hendrik Heinz, Axel Kohlmeyer, and Ellad B. Tadmor},
 title = {Type Label Framework for Bonded Force Fields in LAMMPS},
 journal = {J. Phys. Chem. B},
 year =    2024,
 volume =  128,
 number =  13,
 pages =   {3282â€“-3297}
}

CITE-CITE-CITE-CITE-CITE-CITE-CITE-CITE-CITE-CITE-CITE-CITE-CITE

Step         TotEng         PotEng         KinEng         Press           Temp          Volume        Density     c_max_pace_gamma
0  -10206.521     -10206.521      0              12489.65       0              14855.268      1.4499231      0.79358458
Averages over the last 9 of 17 rows, steps 800 to 1502:
TotEng PotEng KinEng Press Temp Volume Density c_max_pace_gamma
-10401.2 -10401.2 0 5979.07 0 14855.3 1.44992 0.822869
Loop time of 14.469 on 1 procs for 1502 steps with 2160 atoms

Minimization stats:
  Stopping criterion = force tolerance
  Energy initial, next-to-last, final =
  Force two-norm initial, final = 90.511291 0.00048559241
  Force max component initial, final = 8.0356722 0.0001152943
  Final line search alpha, max atom move = 1 0.0001152943
  Iterations, force evaluations = 1502 2998

################## equilibration of main calculation
# Equilibrate to specified number of ice

fix             1 all plumed plumedfile plumed.equil.dat outfile plumed.out
fix             3 all nph x 15000 15000 1
fix             4 all temp/csvr 410 410 0.1 67391
velocity 	all create 410 67391 dist gaussian

run 200000
Step         TotEng         PotEng         KinEng         Press           Temp          Volume        Density     c_max_pace_gamma
1502  -10286.917     -10401.336      114.41979      64787.38       410            14855.268      1.4499231      0.83123644
Averages over the last 1001 of 2002 rows, steps 101600 to 201502:
TotEng PotEng KinEng Press Temp Volume Density c_max_pace_gamma
-10130.9 -10245.4 114.486 26749.7 410.237 20557.1 1.04777 0.787931
Loop time of 1284.09 on 1 procs for 200000 steps with 2160 atoms

unfix 1
unfix 3
unfix 4

################## main calculation

dump 		3 all custom 1000 traj.lammpstrj id type element x y z
dump_modify     3 element H O

fix             1 all plumed plumedfile plumed.start.dat outfile plumed.out
fix             3 all nph x 15000 15000 1
fix             4 all temp/csvr 410 410 0.1 67391
velocity 	all create 410 67391 dist gaussian

run             20000000
Step         TotEng         PotEng         KinEng         Press           Temp          Volume        Density     c_max_pace_gamma
201502  -10131.085     -10245.505      114.41979      4340.7944      410            20542.76       1.0484958      0.72321955
Averages over the last 251 of 502 rows, steps 226600 to 251600:
TotEng PotEng KinEng Press Temp Volume Density c_max_pace_gamma
39905.7 -10251.9 50157.6 2.53972e+06 179730 17412.8 1.23719 0.768459
ERROR: Lost atoms: original 2160 current 2046 (src/thermo.cpp:494)
Last command: run             20000000
