LAMMPS (7 Feb 2024 - Update 1)
KOKKOS mode with Kokkos version 4.2.0 is enabled (src/KOKKOS/kokkos.cpp:72)
  will use up to 4 GPU(s) per node
package kokkos
package kokkos newton on neigh half

units		metal						## E in [eV], t in [ps], P in [10000 Pa], l in [A]
atom_style	atomic						## mass x y z vx vy vz

neighbor	0.5 bin						## neighbor list, skin = 0.5 Angstrom
neigh_modify	every 2 delay 10 check yes			## update of neighbor list

############################## main variables
variable        seed equal 12647

variable	temperature equal 320
variable	tempDamp equal 0.1

variable        pressure equal 10000
variable        pressureDamp equal 1.0 				# This is 1 ps

##############################

read_data water.dat
Reading data file ...
  triclinic box = (0 0 0) to (24.989956 24.989919 23.167336) with tilt (-0.22207236 -0.16357316 -0.098737559)
  reading atoms ...
  1920 atoms

mass		1 1.008    # H
mass		2 15.9994  # O

pair_style	pace/extrapolation
ACE/AL version: 2023.11.25
pair_coeff	* * /home/cicn/cicn607503/pd/pot_dir/interim_potential_ladder_step_1.yaml /home/cicn/cicn607503/pd/pot_dir/interim_potential_ladder_step_1.asi H O
Loading /home/cicn/cicn607503/pd/pot_dir/interim_potential_ladder_step_1.yaml
Total number of basis functions
	H: 23 (r=1) 664 (r>1)
	O: 23 (r=1) 664 (r>1)
Mapping LAMMPS atom type #1(H) -> ACE species type #0
Mapping LAMMPS atom type #2(O) -> ACE species type #1
Loading ASI /home/cicn/cicn607503/pd/pot_dir/interim_potential_ladder_step_1.asi
LINEAR ASI is loaded

fix pace_gamma all pair 1000 pace/extrapolation gamma 1
compute max_pace_gamma all reduce max f_pace_gamma
variable dump_skip equal "c_max_pace_gamma < 10"

dump pace_dump all custom 1000 extrapolative_structures.dump id type x y z f_pace_gamma
dump_modify pace_dump skip v_dump_skip
dump_modify pace_dump element H O

variable max_pace_gamma equal c_max_pace_gamma

timestep	0.0005						## timestep = 0.0005*ps = 0.5 fs

thermo		100
thermo_style custom step etotal pe ke press temp vol density c_max_pace_gamma

min_style cg/kk
minimize 0.0 5.0e-4 10000 100000
Step         TotEng         PotEng         KinEng         Press           Temp          Volume        Density     c_max_pace_gamma
0  -9186.3912     -9186.3912      0              71325.798      0              14467.932      1.3233249      0.69469969
Loop time of 1.18851 on 4 procs for 293 steps with 1920 atoms

Minimization stats:
  Stopping criterion = force tolerance
  Energy initial, next-to-last, final =
  Force two-norm initial, final = 64.044178 0.00046765519
  Force max component initial, final = 2.4633048 9.4422067e-05
  Final line search alpha, max atom move = 1 9.4422067e-05
  Iterations, force evaluations = 293 585

################## equilibration of main calculation
# Equilibrate to specified number of ice

fix             3 all nph tri 10000 10000 1
fix             4 all temp/csvr 320 320 0.1 12647
velocity 	all create 320 12647 dist gaussian

run 200000
Step         TotEng         PotEng         KinEng         Press           Temp          Volume        Density     c_max_pace_gamma
293  -9193.7391     -9273.1151      79.37607      -2269.2068      320            14467.932      1.3233249      0.69469969
Averages over the last 1001 of 2002 rows, steps 100300 to 200293:
TotEng PotEng KinEng Press Temp Volume Density c_max_pace_gamma
-9109.87 -9189.4 79.522 10010.2 320.588 14200.9 1.34823 0.686587
Loop time of 546.149 on 4 procs for 200000 steps with 1920 atoms

unfix 3
unfix 4

################## main calculation

dump 		3 all custom 1000 traj.lammpstrj id type element x y z
dump_modify     3 element H O

fix             3 all nph tri 10000 10000 1
fix             4 all temp/csvr 320 320 0.1 12647
velocity 	all create 320 12647 dist gaussian

run             200000
Step         TotEng         PotEng         KinEng         Press           Temp          Volume        Density     c_max_pace_gamma
200293  -9105.0827     -9184.4588      79.37607       8635.4795      320            14264.002      1.3422443      0.65399308
Averages over the last 1001 of 2002 rows, steps 300300 to 400293:
TotEng PotEng KinEng Press Temp Volume Density c_max_pace_gamma
-9109.89 -9189.43 79.5385 10055.5 320.655 14194.3 1.34887 0.689447
Loop time of 544.817 on 4 procs for 200000 steps with 1920 atoms

unfix		3
unfix		4
