LAMMPS (27 Jun 2024)
KOKKOS mode with Kokkos version 4.3.1 is enabled (src/KOKKOS/kokkos.cpp:72)
  will use up to 1 GPU(s) per node
package kokkos
package kokkos newton on neigh half

units		metal						## E in [eV], t in [ps], P in [10000 Pa], l in [A]
atom_style	atomic						## mass x y z vx vy vz

neighbor	0.5 bin						## neighbor list, skin = 0.5 Angstrom
neigh_modify	every 2 delay 10 check yes			## update of neighbor list

############################## main variables
variable        seed equal 96879

variable	temperature equal 270
variable	tempDamp equal 0.1

variable        pressure equal 5000
variable        pressureDamp equal 1.0 				# This is 1 ps

##############################

read_data water.dat
Reading data file ...
  triclinic box = (0 0 0) to (20.086446 20.107908 21.036805) with tilt (-0.12289673 -0.12587322 0.25756352)
  reading atoms ...
  972 atoms

mass		1 1.008    # H
mass		2 15.9994  # O

pair_style	pace/extrapolation
ACE/AL version: 2023.11.25
pair_coeff	* * /pc2/users/a/acepdw01/work/phase_diagram/pot_dir/interim_potential_ladder_step_1.yaml /pc2/users/a/acepdw01/work/phase_diagram/pot_dir/interim_potential_ladder_step_1.asi H O
Loading /pc2/users/a/acepdw01/work/phase_diagram/pot_dir/interim_potential_ladder_step_1.yaml
Total number of basis functions
	H: 23 (r=1) 664 (r>1)
	O: 23 (r=1) 664 (r>1)
Mapping LAMMPS atom type #1(H) -> ACE species type #0
Mapping LAMMPS atom type #2(O) -> ACE species type #1
Loading ASI /pc2/users/a/acepdw01/work/phase_diagram/pot_dir/interim_potential_ladder_step_1.asi
LINEAR ASI is loaded

fix pace_gamma all pair 1000 pace/extrapolation gamma 1
compute max_pace_gamma all reduce max f_pace_gamma
variable dump_skip equal "c_max_pace_gamma < 10"

dump pace_dump all custom 1000 extrapolative_structures.dump id type x y z f_pace_gamma
dump_modify pace_dump skip v_dump_skip
dump_modify pace_dump element H O

variable max_pace_gamma equal c_max_pace_gamma

timestep	0.0005						## timestep = 0.0005*ps = 0.5 fs

thermo		100
thermo_style custom step etotal pe ke press temp vol density c_max_pace_gamma

min_style cg
minimize 0.0 5.0e-4 10000 100000

CITE-CITE-CITE-CITE-CITE-CITE-CITE-CITE-CITE-CITE-CITE-CITE-CITE

Your simulation uses code contributions which should be cited:

- Type Label Framework: https://doi.org/10.1021/acs.jpcb.3c08419

@Article{Gissinger24,
 author = {Jacob R. Gissinger, Ilia Nikiforov, Yaser Afshar, Brendon Waters, Moon-ki Choi, Daniel S. Karls, Alexander Stukowski, Wonpil Im, Hendrik Heinz, Axel Kohlmeyer, and Ellad B. Tadmor},
 title = {Type Label Framework for Bonded Force Fields in LAMMPS},
 journal = {J. Phys. Chem. B},
 year =    2024,
 volume =  128,
 number =  13,
 pages =   {3282â€“-3297}
}

CITE-CITE-CITE-CITE-CITE-CITE-CITE-CITE-CITE-CITE-CITE-CITE-CITE

Step         TotEng         PotEng         KinEng         Press           Temp          Volume        Density     c_max_pace_gamma
0  -4674.4783     -4674.4783      0             -4207.0767      0              8496.6904      1.140744       0.70893308
Loop time of 1.79447 on 1 procs for 344 steps with 972 atoms

Minimization stats:
  Stopping criterion = force tolerance
  Energy initial, next-to-last, final =
  Force two-norm initial, final = 12.278537 0.00048663507
  Force max component initial, final = 0.80662295 7.0562337e-05
  Final line search alpha, max atom move = 1 7.0562337e-05
  Iterations, force evaluations = 344 688

################## equilibration of main calculation
# Equilibrate to specified number of ice

fix             3 all nph tri 5000 5000 1
fix             4 all temp/csvr 270 270 0.1 96879
velocity 	all create 270 96879 dist gaussian

run 200000
Step         TotEng         PotEng         KinEng         Press           Temp          Volume        Density     c_max_pace_gamma
344  -4664.5404     -4698.4286      33.888132     -1019.7355      270            8496.6904      1.140744       0.70893308
Averages over the last 1001 of 2002 rows, steps 100400 to 200344:
TotEng PotEng KinEng Press Temp Volume Density c_max_pace_gamma
-4628.1 -4662.03 33.9306 5032.75 270.339 8107.03 1.19562 0.760122
Loop time of 681.575 on 1 procs for 200000 steps with 972 atoms

unfix 3
unfix 4

################## main calculation

dump 		3 all custom 1000 traj.lammpstrj id type element x y z
dump_modify     3 element H O

fix             3 all nph tri 5000 5000 1
fix             4 all temp/csvr 270 270 0.1 96879
velocity 	all create 270 96879 dist gaussian

run             2000000
Step         TotEng         PotEng         KinEng         Press           Temp          Volume        Density     c_max_pace_gamma
200344  -4628.7141     -4662.6023      33.888132      1267.7964      270            8218.9907      1.1792869      0.77189731
Averages over the last 10001 of 20002 rows, steps 1200400 to 2200344:
TotEng PotEng KinEng Press Temp Volume Density c_max_pace_gamma
-4628.07 -4662.01 33.9448 5012.93 270.452 8103.28 1.19617 0.772077
Loop time of 6786.7 on 1 procs for 2000000 steps with 972 atoms

unfix		3
unfix		4
