LAMMPS (27 Jun 2024)
KOKKOS mode with Kokkos version 4.3.1 is enabled (src/KOKKOS/kokkos.cpp:72)
  will use up to 1 GPU(s) per node
package kokkos
package kokkos newton on neigh half
units		metal						## E in [eV], t in [ps], P in [10000 Pa], l in [A]
atom_style	atomic						## mass x y z vx vy vz

neighbor	0.5 bin						## neighbor list, skin = 0.5 Angstrom
neigh_modify	every 2 delay 10 check yes			## update of neighbor list

############################## main variables
variable        seed equal 56912

variable        Thh equal 800
variable	temperature equal 390
variable	tempDamp equal 0.1

variable        pressure equal 30000
variable        pressureDamp equal 1.0 				# This is 1 ps

##############################

read_data water.dat
Reading data file ...
  orthogonal box = (0 0 0) to (19.665067 19.665067 32.733555)
  reading atoms ...
  2160 atoms

mass		1 1.008    # H
mass		2 15.9994  # O

pair_style	pace/extrapolation
ACE/AL version: 2023.11.25
pair_coeff	* * /pc2/users/a/acepdw01/work/phase_diagram/pot_dir/interim_potential_ladder_step_1.yaml /pc2/users/a/acepdw01/work/phase_diagram/pot_dir/interim_potential_ladder_step_1.asi H O
Loading /pc2/users/a/acepdw01/work/phase_diagram/pot_dir/interim_potential_ladder_step_1.yaml
Total number of basis functions
	H: 23 (r=1) 664 (r>1)
	O: 23 (r=1) 664 (r>1)
Mapping LAMMPS atom type #1(H) -> ACE species type #0
Mapping LAMMPS atom type #2(O) -> ACE species type #1
Loading ASI /pc2/users/a/acepdw01/work/phase_diagram/pot_dir/interim_potential_ladder_step_1.asi
LINEAR ASI is loaded

fix pace_gamma all pair 1000 pace/extrapolation gamma 1
compute max_pace_gamma all reduce max f_pace_gamma
variable dump_skip equal "c_max_pace_gamma < 10"

dump pace_dump all custom 1000 extrapolative_structures.dump id type x y z f_pace_gamma
dump_modify pace_dump skip v_dump_skip
dump_modify pace_dump element H O

variable max_pace_gamma equal c_max_pace_gamma

timestep	0.0005						## timestep = 0.0005*ps = 0.5 fs

thermo		100
thermo_style custom step etotal pe ke press temp vol density c_max_pace_gamma

min_style cg
minimize 0.0 5.0e-4 10000 100000

CITE-CITE-CITE-CITE-CITE-CITE-CITE-CITE-CITE-CITE-CITE-CITE-CITE

Your simulation uses code contributions which should be cited:

- Type Label Framework: https://doi.org/10.1021/acs.jpcb.3c08419

@Article{Gissinger24,
 author = {Jacob R. Gissinger, Ilia Nikiforov, Yaser Afshar, Brendon Waters, Moon-ki Choi, Daniel S. Karls, Alexander Stukowski, Wonpil Im, Hendrik Heinz, Axel Kohlmeyer, and Ellad B. Tadmor},
 title = {Type Label Framework for Bonded Force Fields in LAMMPS},
 journal = {J. Phys. Chem. B},
 year =    2024,
 volume =  128,
 number =  13,
 pages =   {3282â€“-3297}
}

CITE-CITE-CITE-CITE-CITE-CITE-CITE-CITE-CITE-CITE-CITE-CITE-CITE

Step         TotEng         PotEng         KinEng         Press           Temp          Volume        Density     c_max_pace_gamma
0  -10417.495     -10417.495      0              21939.986      0              12658.552      1.7015372      0.62320148
Loop time of 0.382936 on 1 procs for 33 steps with 2160 atoms

Minimization stats:
  Stopping criterion = force tolerance
  Energy initial, next-to-last, final =
  Force two-norm initial, final = 1.0592923 0.00038830903
  Force max component initial, final = 0.040662516 1.1308344e-05
  Final line search alpha, max atom move = 1 1.1308344e-05
  Iterations, force evaluations = 33 66

################## equilibration of main calculation
# Equilibrate to specified number of ice

fix             3 all nph aniso 30000 30000 1
fix             4 all temp/csvr 390 390 0.1 56912
velocity 	all create 390 56912 dist gaussian

run 1000
Step         TotEng         PotEng         KinEng         Press           Temp          Volume        Density     c_max_pace_gamma
33  -10308.904     -10417.742      108.83833      31533.741      390            12658.552      1.7015372      0.62320148
Averages over the last 6 of 12 rows, steps 600 to 1033:
TotEng PotEng KinEng Press Temp Volume Density c_max_pace_gamma
-10220.5 -10320.3 99.7215 29340.5 357.332 13445.6 1.60194 0.700937
Loop time of 5.92801 on 1 procs for 1000 steps with 2160 atoms

unfix 3
unfix 4

################## freeze bulk block

dump            3 all custom 1000 traj.lammpstrj id type element x y z
dump_modify     3 element H O

region		r_bulk block -1000 1000 -1000 1000  10.911184983333328 21.822369966666656  	## block for MSD calculation
group		g_bulk region r_bulk				        ## all atoms in {r_msd} region -> {g_msd} gr
705 atoms in group g_bulk
group		g_liquid subtract all g_bulk
1455 atoms in group g_liquid

velocity	g_bulk set 0.0 0.0 0.0
fix		freeze_bulk g_bulk setforce 0.0 0.0 0.0

velocity    	g_liquid create 800  45321

fix             3 g_liquid nph aniso 30000 30000 1
fix             4 g_liquid temp/csvr 800 800 0.1 56912
velocity        g_liquid create 800 56912 dist gaussian

run             40000
Step         TotEng         PotEng         KinEng         Press           Temp          Volume        Density     c_max_pace_gamma
1033  -10165.531     -10315.886      150.3554       33873.739      538.76795      13434.247      1.6032901      0.85640802
Averages over the last 201 of 402 rows, steps 21100 to 41033:
TotEng PotEng KinEng Press Temp Volume Density c_max_pace_gamma
-10018.7 -10168.7 150.017 29901.8 537.555 14424.1 1.49329 0.827924
Loop time of 227.586 on 1 procs for 40000 steps with 2160 atoms

unfix           3
unfix           4
unfix           freeze_bulk

################## main calculation

fix             3 all nph aniso 30000 30000 1
fix             4 all temp/csvr 390 390 0.1 56912
velocity 	all create 390 56912 dist gaussian

run             2000
Step         TotEng         PotEng         KinEng         Press           Temp          Volume        Density     c_max_pace_gamma
41033  -10060.147     -10168.986      108.83833      29191.017      390            14366.631      1.4992378      0.97414797
Averages over the last 11 of 22 rows, steps 42100 to 43033:
TotEng PotEng KinEng Press Temp Volume Density c_max_pace_gamma
-10153.7 -10267.8 114.115 30222 408.908 14810.1 1.45435 0.779513
Loop time of 11.1056 on 1 procs for 2000 steps with 2160 atoms

unfix		3
unfix		4
