LAMMPS (7 Feb 2024 - Update 1)
KOKKOS mode with Kokkos version 4.2.0 is enabled (src/KOKKOS/kokkos.cpp:72)
  will use up to 2 GPU(s) per node
package kokkos
package kokkos newton on neigh half

units		metal						## E in [eV], t in [ps], P in [10000 Pa], l in [A]
atom_style	atomic						## mass x y z vx vy vz

neighbor	0.5 bin						## neighbor list, skin = 0.5 Angstrom
neigh_modify	every 2 delay 10 check yes			## update of neighbor list

############################## main variables
variable        seed equal 65091

variable	temperature equal 310
variable	tempDamp equal 0.1

variable        pressure equal 4000
variable        pressureDamp equal 1.0 				# This is 1 ps

##############################

read_data water.dat
Reading data file ...
  triclinic box = (0 0 0) to (18.047441 22.912981 19.549222) with tilt (-0.10697296 -6.2467562 -0.022549581)
  reading atoms ...
  1008 atoms

mass		1 1.008    # H
mass		2 15.9994  # O

pair_style	pace/extrapolation
ACE/AL version: 2023.11.25
pair_coeff	* * /home/cicn/cicn607503/pd/pot_dir/interim_potential_ladder_step_5.yaml /home/cicn/cicn607503/pd/pot_dir/interim_potential_ladder_step_5.asi H O
Loading /home/cicn/cicn607503/pd/pot_dir/interim_potential_ladder_step_5.yaml
Total number of basis functions
	H: 24 (r=1) 863 (r>1)
	O: 24 (r=1) 863 (r>1)
Mapping LAMMPS atom type #1(H) -> ACE species type #0
Mapping LAMMPS atom type #2(O) -> ACE species type #1
Loading ASI /home/cicn/cicn607503/pd/pot_dir/interim_potential_ladder_step_5.asi
LINEAR ASI is loaded

fix pace_gamma all pair 1000 pace/extrapolation gamma 1
compute max_pace_gamma all reduce max f_pace_gamma
variable dump_skip equal "c_max_pace_gamma < 10"

dump pace_dump all custom 1000 extrapolative_structures.dump id type x y z f_pace_gamma
dump_modify pace_dump skip v_dump_skip
dump_modify pace_dump element H O

variable max_pace_gamma equal c_max_pace_gamma

timestep	0.0005						## timestep = 0.0005*ps = 0.5 fs

thermo		100
thermo_style custom step etotal pe ke press temp vol density c_max_pace_gamma

min_style cg/kk
minimize 0.0 5.0e-4 10000 100000
Step         TotEng         PotEng         KinEng         Press           Temp          Volume        Density     c_max_pace_gamma
0  -4827.4078     -4827.4078      0              65842.018      0              8084.0073      1.2433848      0.77404012
Loop time of 1.20082 on 2 procs for 303 steps with 1008 atoms

Minimization stats:
  Stopping criterion = force tolerance
  Energy initial, next-to-last, final =
  Force two-norm initial, final = 47.883568 0.00048071696
  Force max component initial, final = 2.283098 3.3055059e-05
  Final line search alpha, max atom move = 1 3.3055059e-05
  Iterations, force evaluations = 303 605

################## equilibration of main calculation
# Equilibrate to specified number of ice

fix             3 all nph tri 4000 4000 1
fix             4 all temp/csvr 310 310 0.1 65091
velocity 	all create 310 65091 dist gaussian

run 200000
Step         TotEng         PotEng         KinEng         Press           Temp          Volume        Density     c_max_pace_gamma
303  -4828.7511     -4869.1022      40.351139     -3256.1079      310            8084.0073      1.2433848      0.77404012
Averages over the last 1001 of 2002 rows, steps 100400 to 200303:
TotEng PotEng KinEng Press Temp Volume Density c_max_pace_gamma
-4784.41 -4824.89 40.4859 3967.76 311.035 8114.56 1.23876 0.747694
Loop time of 542.312 on 2 procs for 200000 steps with 1008 atoms

unfix 3
unfix 4

################## main calculation

dump 		3 all custom 1000 traj.lammpstrj id type element x y z
dump_modify     3 element H O

fix             3 all nph tri 4000 4000 1
fix             4 all temp/csvr 310 310 0.1 65091
velocity 	all create 310 65091 dist gaussian

run             200000
Step         TotEng         PotEng         KinEng         Press           Temp          Volume        Density     c_max_pace_gamma
200303  -4786.3432     -4826.6944      40.351139      380.60852      310            8142.1563      1.2345049      0.74526046
Averages over the last 1001 of 2002 rows, steps 300400 to 400303:
TotEng PotEng KinEng Press Temp Volume Density c_max_pace_gamma
-4784.43 -4824.91 40.4853 4052.96 311.031 8112.87 1.23901 0.745308
Loop time of 549.247 on 2 procs for 200000 steps with 1008 atoms

unfix		3
unfix		4
