LAMMPS (27 Jun 2024)
KOKKOS mode with Kokkos version 4.3.1 is enabled (src/KOKKOS/kokkos.cpp:72)
  will use up to 1 GPU(s) per node
package kokkos
package kokkos newton on neigh half

units		metal						## E in [eV], t in [ps], P in [10000 Pa], l in [A]
atom_style	atomic						## mass x y z vx vy vz

neighbor	0.5 bin						## neighbor list, skin = 0.5 Angstrom
neigh_modify	every 2 delay 10 check yes			## update of neighbor list

############################## main variables
variable        seed equal 72922

variable	temperature equal 400
variable	tempDamp equal 0.1

variable        pressure equal 30000
variable        pressureDamp equal 1.0 				# This is 1 ps

##############################

read_data water.dat
Reading data file ...
  orthogonal box = (0 0 0) to (13.110045 13.110044 13.093422)
  reading atoms ...
  384 atoms

mass		1 1.008    # H
mass		2 15.9994  # O

pair_style	pace/extrapolation
ACE/AL version: 2023.11.25
pair_coeff	* * /pc2/users/a/acepdw01/work/phase_diagram/pot_dir/interim_potential_ladder_step_1.yaml /pc2/users/a/acepdw01/work/phase_diagram/pot_dir/interim_potential_ladder_step_1.asi H O
Loading /pc2/users/a/acepdw01/work/phase_diagram/pot_dir/interim_potential_ladder_step_1.yaml
Total number of basis functions
	H: 23 (r=1) 664 (r>1)
	O: 23 (r=1) 664 (r>1)
Mapping LAMMPS atom type #1(H) -> ACE species type #0
Mapping LAMMPS atom type #2(O) -> ACE species type #1
Loading ASI /pc2/users/a/acepdw01/work/phase_diagram/pot_dir/interim_potential_ladder_step_1.asi
LINEAR ASI is loaded

fix pace_gamma all pair 1000 pace/extrapolation gamma 1
compute max_pace_gamma all reduce max f_pace_gamma
variable dump_skip equal "c_max_pace_gamma < 10"

dump pace_dump all custom 1000 extrapolative_structures.dump id type x y z f_pace_gamma
dump_modify pace_dump skip v_dump_skip
dump_modify pace_dump element H O

variable max_pace_gamma equal c_max_pace_gamma

timestep	0.0005						## timestep = 0.0005*ps = 0.5 fs

thermo		100
thermo_style custom step etotal pe ke press temp vol density c_max_pace_gamma

min_style cg
minimize 0.0 5.0e-4 10000 100000

CITE-CITE-CITE-CITE-CITE-CITE-CITE-CITE-CITE-CITE-CITE-CITE-CITE

Your simulation uses code contributions which should be cited:

- Type Label Framework: https://doi.org/10.1021/acs.jpcb.3c08419

@Article{Gissinger24,
 author = {Jacob R. Gissinger, Ilia Nikiforov, Yaser Afshar, Brendon Waters, Moon-ki Choi, Daniel S. Karls, Alexander Stukowski, Wonpil Im, Hendrik Heinz, Axel Kohlmeyer, and Ellad B. Tadmor},
 title = {Type Label Framework for Bonded Force Fields in LAMMPS},
 journal = {J. Phys. Chem. B},
 year =    2024,
 volume =  128,
 number =  13,
 pages =   {3282â€“-3297}
}

CITE-CITE-CITE-CITE-CITE-CITE-CITE-CITE-CITE-CITE-CITE-CITE-CITE

Step         TotEng         PotEng         KinEng         Press           Temp          Volume        Density     c_max_pace_gamma
0  -1851.9992     -1851.9992      0              21939.986      0              2250.4092      1.7015372      0.62320148
Loop time of 0.136007 on 1 procs for 31 steps with 384 atoms

Minimization stats:
  Stopping criterion = force tolerance
  Energy initial, next-to-last, final =
  Force two-norm initial, final = 0.44663683 0.00032721251
  Force max component initial, final = 0.040656412 3.2628831e-05
  Final line search alpha, max atom move = 1 3.2628831e-05
  Iterations, force evaluations = 31 62

################## equilibration of main calculation
# Equilibrate to specified number of ice

fix             3 all nph aniso 30000 30000 1
fix             4 all temp/csvr 400 400 0.1 72922
velocity 	all create 400 72922 dist gaussian

run 20000
Step         TotEng         PotEng         KinEng         Press           Temp          Volume        Density     c_max_pace_gamma
31  -1832.2404     -1852.043       19.802654      31748.849      400            2250.4092      1.7015372      0.62320148
Averages over the last 101 of 202 rows, steps 10100 to 20031:
TotEng PotEng KinEng Press Temp Volume Density c_max_pace_gamma
-1812.62 -1832.38 19.7543 30672.6 399.023 2415 1.58566 0.802915
Loop time of 52.6754 on 1 procs for 20000 steps with 384 atoms

unfix 3
unfix 4

################## main calculation

dump 		3 all custom 1000 traj.lammpstrj id type element x y z
dump_modify     3 element H O

variable	dump_out_freq equal 500
dump            myDump all atom 500 dump.na
dump            myDcdDump all dcd 500 out.dcd
dump_modify	myDump append yes
dump_modify     myDcdDump append yes

fix             3 all nph aniso 30000 30000 1
fix             4 all temp/csvr 400 400 0.1 72922
velocity 	all create 400 72922 dist gaussian

run             200000
Step         TotEng         PotEng         KinEng         Press           Temp          Volume        Density     c_max_pace_gamma
20031  -1811.5483     -1831.3509      19.802654      34895.158      400            2415.4574      1.5852712      0.77500286
Averages over the last 1001 of 2002 rows, steps 120100 to 220031:
TotEng PotEng KinEng Press Temp Volume Density c_max_pace_gamma
-1812.54 -1832.34 19.7954 29786.8 399.854 2414.49 1.58603 0.801405
Loop time of 527.864 on 1 procs for 200000 steps with 384 atoms

unfix		3
unfix		4
