LAMMPS (7 Feb 2024 - Update 1)
KOKKOS mode with Kokkos version 4.2.0 is enabled (src/KOKKOS/kokkos.cpp:72)
  will use up to 4 GPU(s) per node
package kokkos
package kokkos newton on neigh half

units		metal						## E in [eV], t in [ps], P in [10000 Pa], l in [A]
atom_style	atomic						## mass x y z vx vy vz

neighbor	0.5 bin						## neighbor list, skin = 0.5 Angstrom
neigh_modify	every 2 delay 10 check yes			## update of neighbor list

############################## main variables
variable        seed equal 79024

variable	temperature equal 335
variable	tempDamp equal 0.1

variable        pressure equal 10000
variable        pressureDamp equal 1.0 				# This is 1 ps

##############################

read_data water.dat
Reading data file ...
  triclinic box = (0 0 0) to (24.989956 24.989919 23.167336) with tilt (-0.22207236 -0.16357316 -0.098737559)
  reading atoms ...
  1920 atoms

mass		1 1.008    # H
mass		2 15.9994  # O

pair_style	pace/extrapolation
ACE/AL version: 2023.11.25
pair_coeff	* * /home/cicn/cicn607503/pd/pot_dir/interim_potential_ladder_step_1.yaml /home/cicn/cicn607503/pd/pot_dir/interim_potential_ladder_step_1.asi H O
Loading /home/cicn/cicn607503/pd/pot_dir/interim_potential_ladder_step_1.yaml
Total number of basis functions
	H: 23 (r=1) 664 (r>1)
	O: 23 (r=1) 664 (r>1)
Mapping LAMMPS atom type #1(H) -> ACE species type #0
Mapping LAMMPS atom type #2(O) -> ACE species type #1
Loading ASI /home/cicn/cicn607503/pd/pot_dir/interim_potential_ladder_step_1.asi
LINEAR ASI is loaded

fix pace_gamma all pair 1000 pace/extrapolation gamma 1
compute max_pace_gamma all reduce max f_pace_gamma
variable dump_skip equal "c_max_pace_gamma < 10"

dump pace_dump all custom 1000 extrapolative_structures.dump id type x y z f_pace_gamma
dump_modify pace_dump skip v_dump_skip
dump_modify pace_dump element H O

variable max_pace_gamma equal c_max_pace_gamma

timestep	0.0005						## timestep = 0.0005*ps = 0.5 fs

thermo		100
thermo_style custom step etotal pe ke press temp vol density c_max_pace_gamma

min_style cg/kk
minimize 0.0 5.0e-4 10000 100000
Step         TotEng         PotEng         KinEng         Press           Temp          Volume        Density     c_max_pace_gamma
0  -9186.3912     -9186.3912      0              71325.798      0              14467.932      1.3233249      0.69469981
Loop time of 1.34323 on 4 procs for 333 steps with 1920 atoms

Minimization stats:
  Stopping criterion = force tolerance
  Energy initial, next-to-last, final =
  Force two-norm initial, final = 64.044178 0.00046448421
  Force max component initial, final = 2.4633048 0.00012698581
  Final line search alpha, max atom move = 1 0.00012698581
  Iterations, force evaluations = 333 665

################## equilibration of main calculation
# Equilibrate to specified number of ice

fix             3 all nph tri 10000 10000 1
fix             4 all temp/csvr 335 335 0.1 79024
velocity 	all create 335 79024 dist gaussian

run 200000
Step         TotEng         PotEng         KinEng         Press           Temp          Volume        Density     c_max_pace_gamma
333  -9190.0183     -9273.1151      83.096823     -1994.4989      335            14467.932      1.3233249      0.69469981
Averages over the last 1001 of 2002 rows, steps 100400 to 200333:
TotEng PotEng KinEng Press Temp Volume Density c_max_pace_gamma
-9101.66 -9184.77 83.1124 10107.1 335.063 14265.4 1.34214 0.686691
Loop time of 547.332 on 4 procs for 200000 steps with 1920 atoms

unfix 3
unfix 4

################## main calculation

dump 		3 all custom 1000 traj.lammpstrj id type element x y z
dump_modify     3 element H O

fix             3 all nph tri 10000 10000 1
fix             4 all temp/csvr 335 335 0.1 79024
velocity 	all create 335 79024 dist gaussian

run             200000
Step         TotEng         PotEng         KinEng         Press           Temp          Volume        Density     c_max_pace_gamma
200333  -9104.4141     -9187.5109      83.096823      8592.9402      335            14212.077      1.3471483      0.74162749
Averages over the last 1001 of 2002 rows, steps 300400 to 400333:
TotEng PotEng KinEng Press Temp Volume Density c_max_pace_gamma
-9101.19 -9184.31 83.1252 10098.3 335.114 14276.2 1.34112 0.688008
Loop time of 548.273 on 4 procs for 200000 steps with 1920 atoms

unfix		3
unfix		4
