LAMMPS (27 Jun 2024)

units		metal						## E in [eV], t in [ps], P in [10000 Pa], l in [A]
atom_style	atomic						## mass x y z vx vy vz

neighbor	0.5 bin						## neighbor list, skin = 0.5 Angstrom
neigh_modify	every 2 delay 10 check yes			## update of neighbor list

############################## main variables
variable        seed equal 31735

variable	temperature equal 460
variable	tempDamp equal 0.1

variable        pressure equal 30000
variable        pressureDamp equal 1.0 				# This is 1 ps

##############################

read_data water.dat
Reading data file ...
  orthogonal box = (0 0 0) to (20.254784 20.261831 35.959838)
  reading atoms ...
  2160 atoms

mass		1 1.008    # H
mass		2 15.9994  # O

pair_style	pace/extrapolation
ACE/AL version: 2023.11.25
pair_coeff	* * /pc2/users/a/acepdw01/work/phase_diagram/pot_dir/interim_potential_ladder_step_1.yaml /pc2/users/a/acepdw01/work/phase_diagram/pot_dir/interim_potential_ladder_step_1.asi H O
Loading /pc2/users/a/acepdw01/work/phase_diagram/pot_dir/interim_potential_ladder_step_1.yaml
Total number of basis functions
	H: 23 (r=1) 664 (r>1)
	O: 23 (r=1) 664 (r>1)
Mapping LAMMPS atom type #1(H) -> ACE species type #0
Mapping LAMMPS atom type #2(O) -> ACE species type #1
Loading ASI /pc2/users/a/acepdw01/work/phase_diagram/pot_dir/interim_potential_ladder_step_1.asi
LINEAR ASI is loaded

fix pace_gamma all pair 1000 pace/extrapolation gamma 1
compute max_pace_gamma all reduce max f_pace_gamma
variable dump_skip equal "c_max_pace_gamma < 10"

dump pace_dump all custom 1000 extrapolative_structures.dump id type x y z f_pace_gamma
dump_modify pace_dump skip v_dump_skip
dump_modify pace_dump element H O

variable max_pace_gamma equal c_max_pace_gamma

timestep	0.0005						## timestep = 0.0005*ps = 0.5 fs

thermo		100
thermo_style custom step etotal pe ke press temp vol density c_max_pace_gamma

min_style cg
minimize 0.0 5.0e-4 10000 100000

CITE-CITE-CITE-CITE-CITE-CITE-CITE-CITE-CITE-CITE-CITE-CITE-CITE

Your simulation uses code contributions which should be cited:

- Type Label Framework: https://doi.org/10.1021/acs.jpcb.3c08419

@Article{Gissinger24,
 author = {Jacob R. Gissinger, Ilia Nikiforov, Yaser Afshar, Brendon Waters, Moon-ki Choi, Daniel S. Karls, Alexander Stukowski, Wonpil Im, Hendrik Heinz, Axel Kohlmeyer, and Ellad B. Tadmor},
 title = {Type Label Framework for Bonded Force Fields in LAMMPS},
 journal = {J. Phys. Chem. B},
 year =    2024,
 volume =  128,
 number =  13,
 pages =   {3282â€“-3297}
}

CITE-CITE-CITE-CITE-CITE-CITE-CITE-CITE-CITE-CITE-CITE-CITE-CITE

Step         TotEng         PotEng         KinEng         Press           Temp          Volume        Density     c_max_pace_gamma
0  -10267.647     -10267.647      0              24119.03       0              14757.882      1.459491       0.7806069
Averages over the last 6 of 12 rows, steps 600 to 1075:
TotEng PotEng KinEng Press Temp Volume Density c_max_pace_gamma
-10401.3 -10401.3 0 8833.58 0 14757.9 1.45949 0.811575
Loop time of 45.4738 on 20 procs for 1075 steps with 2160 atoms

Minimization stats:
  Stopping criterion = force tolerance
  Energy initial, next-to-last, final =
  Force two-norm initial, final = 75.815043 0.00049654096
  Force max component initial, final = 6.4689651 0.00010950286
  Final line search alpha, max atom move = 1 0.00010950286
  Iterations, force evaluations = 1075 2149

################## equilibration of main calculation
# Equilibrate to specified number of ice

dump            3 all custom 1000 traj.lammpstrj id type element x y z
dump_modify     3 element H O

fix             1 all plumed plumedfile plumed.equil.dat outfile plumed.out
fix             3 all nph z 30000 30000 1
fix             4 all temp/csvr 460 460 0.1 31735
velocity 	all create 460 31735 dist gaussian

run 2000
Step         TotEng         PotEng         KinEng         Press           Temp          Volume        Density     c_max_pace_gamma
1075  -10272.967     -10401.34       128.37342      18123.087      460            14757.882      1.459491       0.87351245
Averages over the last 11 of 22 rows, steps 2100 to 3075:
TotEng PotEng KinEng Press Temp Volume Density c_max_pace_gamma
-10143.5 -10265.8 122.348 29958.3 438.409 14820.4 1.45342 0.820643
Loop time of 172.806 on 20 procs for 2000 steps with 2160 atoms

unfix 1
unfix 3
unfix 4

################## main calculation

fix             1 all plumed plumedfile plumed.start.dat outfile plumed.out
fix             3 all nph z 30000 30000 1
fix             4 all temp/csvr 460 460 0.1 31735
velocity 	all create 460 31735 dist gaussian

run             20000
Step         TotEng         PotEng         KinEng         Press           Temp          Volume        Density     c_max_pace_gamma
3075  -10132.162     -10260.536      128.37342      29941.385      460            14934.485      1.4422323      0.99652338
Averages over the last 101 of 202 rows, steps 13100 to 23075:
TotEng PotEng KinEng Press Temp Volume Density c_max_pace_gamma
-10132.3 -10260.4 128.122 30220.5 459.099 14809.5 1.45443 0.800438
Loop time of 1729.61 on 20 procs for 20000 steps with 2160 atoms

unfix		1
unfix		3
unfix		4
