LAMMPS (27 Jun 2024)
KOKKOS mode with Kokkos version 4.3.1 is enabled (src/KOKKOS/kokkos.cpp:72)
  will use up to 1 GPU(s) per node
package kokkos
package kokkos newton on neigh half

units		metal						## E in [eV], t in [ps], P in [10000 Pa], l in [A]
atom_style	atomic						## mass x y z vx vy vz

neighbor	0.5 bin						## neighbor list, skin = 0.5 Angstrom
neigh_modify	every 2 delay 10 check yes			## update of neighbor list

############################## main variables
variable        seed equal 5166

variable	temperature equal 390
variable	tempDamp equal 0.1

variable        pressure equal 30000
variable        pressureDamp equal 1.0 				# This is 1 ps

##############################

read_data water.dat
Reading data file ...
  orthogonal box = (0 0 0) to (20.13213 20.132272 35.107669)
  reading atoms ...
  2160 atoms

mass		1 1.008    # H
mass		2 15.9994  # O

pair_style	pace/extrapolation
ACE/AL version: 2023.11.25
pair_coeff	* * /pc2/users/a/acepdw01/work/phase_diagram/pot_dir/interim_potential_ladder_step_1.yaml /pc2/users/a/acepdw01/work/phase_diagram/pot_dir/interim_potential_ladder_step_1.asi H O
Loading /pc2/users/a/acepdw01/work/phase_diagram/pot_dir/interim_potential_ladder_step_1.yaml
Total number of basis functions
	H: 23 (r=1) 664 (r>1)
	O: 23 (r=1) 664 (r>1)
Mapping LAMMPS atom type #1(H) -> ACE species type #0
Mapping LAMMPS atom type #2(O) -> ACE species type #1
Loading ASI /pc2/users/a/acepdw01/work/phase_diagram/pot_dir/interim_potential_ladder_step_1.asi
LINEAR ASI is loaded

fix pace_gamma all pair 1000 pace/extrapolation gamma 1
compute max_pace_gamma all reduce max f_pace_gamma
variable dump_skip equal "c_max_pace_gamma < 10"

dump pace_dump all custom 1000 extrapolative_structures.dump id type x y z f_pace_gamma
dump_modify pace_dump skip v_dump_skip
dump_modify pace_dump element H O

variable max_pace_gamma equal c_max_pace_gamma

timestep	0.0005						## timestep = 0.0005*ps = 0.5 fs

thermo		100
thermo_style custom step etotal pe ke press temp vol density c_max_pace_gamma

min_style cg
minimize 0.0 5.0e-4 10000 100000

CITE-CITE-CITE-CITE-CITE-CITE-CITE-CITE-CITE-CITE-CITE-CITE-CITE

Your simulation uses code contributions which should be cited:

- Type Label Framework: https://doi.org/10.1021/acs.jpcb.3c08419

@Article{Gissinger24,
 author = {Jacob R. Gissinger, Ilia Nikiforov, Yaser Afshar, Brendon Waters, Moon-ki Choi, Daniel S. Karls, Alexander Stukowski, Wonpil Im, Hendrik Heinz, Axel Kohlmeyer, and Ellad B. Tadmor},
 title = {Type Label Framework for Bonded Force Fields in LAMMPS},
 journal = {J. Phys. Chem. B},
 year =    2024,
 volume =  128,
 number =  13,
 pages =   {3282â€“-3297}
}

CITE-CITE-CITE-CITE-CITE-CITE-CITE-CITE-CITE-CITE-CITE-CITE-CITE

Step         TotEng         PotEng         KinEng         Press           Temp          Volume        Density     c_max_pace_gamma
0  -10394.812     -10394.812      0              10356.492      0              14229.332      1.513704       0.94301683
Loop time of 9.28512 on 1 procs for 960 steps with 2160 atoms

Minimization stats:
  Stopping criterion = force tolerance
  Energy initial, next-to-last, final =
  Force two-norm initial, final = 17.431636 0.00048716527
  Force max component initial, final = 3.1552255 5.8355054e-05
  Final line search alpha, max atom move = 1 5.8355054e-05
  Iterations, force evaluations = 960 1916

################## equilibration of main calculation
# Equilibrate to specified number of ice

fix             3 all nph aniso 30000 30000 1
fix             4 all temp/csvr 390 390 0.1 5166
velocity 	all create 390 5166 dist gaussian

run 200000
Step         TotEng         PotEng         KinEng         Press           Temp          Volume        Density     c_max_pace_gamma
960  -10300.01      -10408.849      108.83833      14520.77       390            14229.332      1.513704       0.94301683
Averages over the last 1001 of 2002 rows, steps 101000 to 200960:
TotEng PotEng KinEng Press Temp Volume Density c_max_pace_gamma
-10205.1 -10313.9 108.849 30012.9 390.039 13552.9 1.58928 0.882247
Loop time of 1167.99 on 1 procs for 200000 steps with 2160 atoms

unfix 3
unfix 4

################## main calculation

dump 		3 all custom 1000 traj.lammpstrj id type element x y z
dump_modify     3 element H O

fix             3 all nph aniso 30000 30000 1
fix             4 all temp/csvr 390 390 0.1 5166
velocity 	all create 390 5166 dist gaussian

run             2000000
Step         TotEng         PotEng         KinEng         Press           Temp          Volume        Density     c_max_pace_gamma
200960  -10209.255     -10318.094      108.83833      31314.054      390            13536.074      1.5912292      0.91153192
Averages over the last 3285 of 6569 rows, steps 529300 to 857700:
TotEng PotEng KinEng Press Temp Volume Density c_max_pace_gamma
-10205.4 -10314.3 108.877 30062.1 390.139 13542.1 1.59055 0.875844
    857
