LAMMPS (27 Jun 2024)
KOKKOS mode with Kokkos version 4.3.1 is enabled (src/KOKKOS/kokkos.cpp:72)
  will use up to 1 GPU(s) per node
package kokkos
package kokkos newton on neigh half

units		metal						## E in [eV], t in [ps], P in [10000 Pa], l in [A]
atom_style	atomic						## mass x y z vx vy vz

neighbor	0.5 bin						## neighbor list, skin = 0.5 Angstrom
neigh_modify	every 2 delay 10 check yes			## update of neighbor list

############################## main variables
variable        seed equal 72922

variable	temperature equal 400
variable	tempDamp equal 0.1

variable        pressure equal 20000
variable        pressureDamp equal 1.0 				# This is 1 ps

##############################

read_data water.dat
Reading data file ...
  orthogonal box = (0 0 0) to (18.18769 21.422696 22.188939)
  reading atoms ...
  864 atoms

mass		1 1.008    # H
mass		2 15.9994  # O

pair_style	pace/extrapolation
ACE/AL version: 2023.11.25
pair_coeff	* * /pc2/users/a/acepdw01/work/phase_diagram/pot_dir/interim_potential_ladder_step_1.yaml /pc2/users/a/acepdw01/work/phase_diagram/pot_dir/interim_potential_ladder_step_1.asi H O
Loading /pc2/users/a/acepdw01/work/phase_diagram/pot_dir/interim_potential_ladder_step_1.yaml
Total number of basis functions
	H: 23 (r=1) 664 (r>1)
	O: 23 (r=1) 664 (r>1)
Mapping LAMMPS atom type #1(H) -> ACE species type #0
Mapping LAMMPS atom type #2(O) -> ACE species type #1
Loading ASI /pc2/users/a/acepdw01/work/phase_diagram/pot_dir/interim_potential_ladder_step_1.asi
LINEAR ASI is loaded

fix pace_gamma all pair 1000 pace/extrapolation gamma 1
compute max_pace_gamma all reduce max f_pace_gamma
variable dump_skip equal "c_max_pace_gamma < 10"

dump pace_dump all custom 1000 extrapolative_structures.dump id type x y z f_pace_gamma
dump_modify pace_dump skip v_dump_skip
dump_modify pace_dump element H O

variable max_pace_gamma equal c_max_pace_gamma

timestep	0.0005						## timestep = 0.0005*ps = 0.5 fs

thermo		100
thermo_style custom step etotal pe ke press temp vol density c_max_pace_gamma

min_style cg
minimize 0.0 5.0e-4 10000 100000

CITE-CITE-CITE-CITE-CITE-CITE-CITE-CITE-CITE-CITE-CITE-CITE-CITE

Your simulation uses code contributions which should be cited:

- Type Label Framework: https://doi.org/10.1021/acs.jpcb.3c08419

@Article{Gissinger24,
 author = {Jacob R. Gissinger, Ilia Nikiforov, Yaser Afshar, Brendon Waters, Moon-ki Choi, Daniel S. Karls, Alexander Stukowski, Wonpil Im, Hendrik Heinz, Axel Kohlmeyer, and Ellad B. Tadmor},
 title = {Type Label Framework for Bonded Force Fields in LAMMPS},
 journal = {J. Phys. Chem. B},
 year =    2024,
 volume =  128,
 number =  13,
 pages =   {3282â€“-3297}
}

CITE-CITE-CITE-CITE-CITE-CITE-CITE-CITE-CITE-CITE-CITE-CITE-CITE

Step         TotEng         PotEng         KinEng         Press           Temp          Volume        Density     c_max_pace_gamma
0  -4122.5852     -4122.5852      0              47781.072      0              8645.4617      0.99654581     0.77349043
Averages over the last 8 of 16 rows, steps 800 to 1461:
TotEng PotEng KinEng Press Temp Volume Density c_max_pace_gamma
-4163.89 -4163.89 0 -3586.35 0 8645.46 0.996546 0.663885
Loop time of 7.00691 on 1 procs for 1461 steps with 864 atoms

Minimization stats:
  Stopping criterion = force tolerance
  Energy initial, next-to-last, final =
  Force two-norm initial, final = 42.505904 0.00046509357
  Force max component initial, final = 2.1459331 0.00010429386
  Final line search alpha, max atom move = 1 0.00010429386
  Iterations, force evaluations = 1461 2920

################## equilibration of main calculation
# Equilibrate to specified number of ice

fix             3 all nph iso 20000 20000 1
fix             4 all temp/csvr 400 400 0.1 72922
velocity 	all create 400 72922 dist gaussian

run 20000
Step         TotEng         PotEng         KinEng         Press           Temp          Volume        Density     c_max_pace_gamma
1461  -4119.2965     -4163.9171      44.620602      1893.594       400            8645.4617      0.99654581     0.62734998
Averages over the last 101 of 202 rows, steps 11500 to 21461:
TotEng PotEng KinEng Press Temp Volume Density c_max_pace_gamma
-4058.52 -4103.36 44.8417 20189.1 401.982 6643.42 1.2969 0.712173
Loop time of 67.1577 on 1 procs for 20000 steps with 864 atoms

unfix 3
unfix 4

################## main calculation

#dump 		3 all custom 1000 traj.lammpstrj id type element x y z
#dump_modify     3 element H O

variable	dump_out_freq equal 500
dump            myDump all atom 500 dump.na
dump            myDcdDump all dcd 500 out.dcd
dump_modify	myDump append yes
dump_modify     myDcdDump append yes

fix             3 all nph iso 20000 20000 1
fix             4 all temp/csvr 400 400 0.1 72922
velocity 	all create 400 72922 dist gaussian

run             200000
Step         TotEng         PotEng         KinEng         Press           Temp          Volume        Density     c_max_pace_gamma
21461  -4058.9747     -4103.5953      44.620602      18811.656      400            6628.3261      1.2998151      0.74007593
Averages over the last 1001 of 2002 rows, steps 121500 to 221461:
TotEng PotEng KinEng Press Temp Volume Density c_max_pace_gamma
-4058.74 -4103.36 44.6202 20099.5 399.996 6654.79 1.29471 0.707979
Loop time of 674.126 on 1 procs for 200000 steps with 864 atoms

unfix		3
unfix		4
