LAMMPS (7 Feb 2024 - Update 1)
KOKKOS mode with Kokkos version 4.2.0 is enabled (src/KOKKOS/kokkos.cpp:72)
  will use up to 4 GPU(s) per node
package kokkos
package kokkos newton on neigh half

units		metal						## E in [eV], t in [ps], P in [10000 Pa], l in [A]
atom_style	atomic						## mass x y z vx vy vz

neighbor	0.5 bin						## neighbor list, skin = 0.5 Angstrom
neigh_modify	every 2 delay 10 check yes			## update of neighbor list

############################## main variables
variable        seed equal 24955

variable	temperature equal 305
variable	tempDamp equal 0.1

variable        pressure equal 5000
variable        pressureDamp equal 1.0 				# This is 1 ps

##############################

read_data water.dat
Reading data file ...
  triclinic box = (0 0 0) to (18.047441 22.912981 19.549222) with tilt (-0.10697296 -6.2467562 -0.022549581)
  reading atoms ...
  1008 atoms

mass		1 1.008    # H
mass		2 15.9994  # O

pair_style	pace/extrapolation
ACE/AL version: 2023.11.25
pair_coeff	* * /home/cicn/cicn607503/pd/pot_dir/interim_potential_ladder_step_1.yaml /home/cicn/cicn607503/pd/pot_dir/interim_potential_ladder_step_1.asi H O
Loading /home/cicn/cicn607503/pd/pot_dir/interim_potential_ladder_step_1.yaml
Total number of basis functions
	H: 23 (r=1) 664 (r>1)
	O: 23 (r=1) 664 (r>1)
Mapping LAMMPS atom type #1(H) -> ACE species type #0
Mapping LAMMPS atom type #2(O) -> ACE species type #1
Loading ASI /home/cicn/cicn607503/pd/pot_dir/interim_potential_ladder_step_1.asi
LINEAR ASI is loaded

fix pace_gamma all pair 1000 pace/extrapolation gamma 1
compute max_pace_gamma all reduce max f_pace_gamma
variable dump_skip equal "c_max_pace_gamma < 10"

dump pace_dump all custom 1000 extrapolative_structures.dump id type x y z f_pace_gamma
dump_modify pace_dump skip v_dump_skip
dump_modify pace_dump element H O

variable max_pace_gamma equal c_max_pace_gamma

timestep	0.0005						## timestep = 0.0005*ps = 0.5 fs

thermo		100
thermo_style custom step etotal pe ke press temp vol density c_max_pace_gamma

min_style cg/kk
minimize 0.0 5.0e-4 10000 100000
Step         TotEng         PotEng         KinEng         Press           Temp          Volume        Density     c_max_pace_gamma
0  -4828.0548     -4828.0548      0              65519.119      0              8084.0073      1.2433848      0.66599327
Loop time of 1.01785 on 4 procs for 297 steps with 1008 atoms

Minimization stats:
  Stopping criterion = force tolerance
  Energy initial, next-to-last, final =
  Force two-norm initial, final = 47.911707 0.00049841008
  Force max component initial, final = 2.3126941 4.2962651e-05
  Final line search alpha, max atom move = 1 4.2962651e-05
  Iterations, force evaluations = 297 593

################## equilibration of main calculation
# Equilibrate to specified number of ice

fix             3 all nph tri 5000 5000 1
fix             4 all temp/csvr 305 305 0.1 24955
velocity 	all create 305 24955 dist gaussian

run 200000
Step         TotEng         PotEng         KinEng         Press           Temp          Volume        Density     c_max_pace_gamma
297  -4830.4939     -4870.1942      39.700315     -3008.2072      305            8084.0073      1.2433848      0.66599327
Averages over the last 1001 of 2002 rows, steps 100300 to 200297:
TotEng PotEng KinEng Press Temp Volume Density c_max_pace_gamma
-4787.97 -4827.78 39.8167 5025.23 305.894 7995.12 1.25725 0.6859
Loop time of 482.647 on 4 procs for 200000 steps with 1008 atoms

unfix 3
unfix 4

################## main calculation

dump 		3 all custom 1000 traj.lammpstrj id type element x y z
dump_modify     3 element H O

fix             3 all nph tri 5000 5000 1
fix             4 all temp/csvr 305 305 0.1 24955
velocity 	all create 305 24955 dist gaussian

run             200000
Step         TotEng         PotEng         KinEng         Press           Temp          Volume        Density     c_max_pace_gamma
200297  -4788.1436     -4827.8439      39.700315      5589.0196      305            8009.9687      1.2548778      0.6296593
Averages over the last 1001 of 2002 rows, steps 300300 to 400297:
TotEng PotEng KinEng Press Temp Volume Density c_max_pace_gamma
-4787.94 -4827.72 39.7786 4971.69 305.601 7999.52 1.25655 0.683369
Loop time of 483.061 on 4 procs for 200000 steps with 1008 atoms

unfix		3
unfix		4
