LAMMPS (29 Aug 2024 - Update 1)

units		metal						## E in [eV], t in [ps], P in [10000 Pa], l in [A]
atom_style	atomic						## mass x y z vx vy vz

neighbor	0.5 bin						## neighbor list, skin = 0.5 Angstrom
neigh_modify	every 2 delay 10 check yes			## update of neighbor list

############################## main variables
variable        seed equal 62568

variable	temperature equal 280
variable	tempDamp equal 0.1

variable        pressure equal 5000
variable        pressureDamp equal 1.0 				# This is 1 ps

##############################

read_data water.dat
Reading data file ...
  triclinic box = (0 0 0) to (18.047441 22.912981 19.549222) with tilt (-0.10697296 -6.2467562 -0.022549581)
  reading atoms ...
  1008 atoms

mass		1 1.008    # H
mass		2 15.9994  # O

pair_style	pace/extrapolation
ACE/AL version: 2023.11.25
pair_coeff	* * /home/users/saadie5f/phase_diagram/pot_dir/interim_potential_ladder_step_1.yaml /home/users/saadie5f/phase_diagram/pot_dir/interim_potential_ladder_step_1.asi H O
Loading /home/users/saadie5f/phase_diagram/pot_dir/interim_potential_ladder_step_1.yaml
Total number of basis functions
	H: 23 (r=1) 664 (r>1)
	O: 23 (r=1) 664 (r>1)
Mapping LAMMPS atom type #1(H) -> ACE species type #0
Mapping LAMMPS atom type #2(O) -> ACE species type #1
Loading ASI /home/users/saadie5f/phase_diagram/pot_dir/interim_potential_ladder_step_1.asi
LINEAR ASI is loaded

fix pace_gamma all pair 1000 pace/extrapolation gamma 1
compute max_pace_gamma all reduce max f_pace_gamma
variable dump_skip equal "c_max_pace_gamma < 10"

dump pace_dump all custom 1000 extrapolative_structures.dump id type x y z f_pace_gamma
dump_modify pace_dump skip v_dump_skip
dump_modify pace_dump element H O

variable max_pace_gamma equal c_max_pace_gamma

timestep	0.0005						## timestep = 0.0005*ps = 0.5 fs

thermo		100
thermo_style custom step etotal pe ke press temp vol density c_max_pace_gamma

min_style cg
minimize 0.0 5.0e-4 10000 100000

CITE-CITE-CITE-CITE-CITE-CITE-CITE-CITE-CITE-CITE-CITE-CITE-CITE

Your simulation uses code contributions which should be cited:

- Type Label Framework: https://doi.org/10.1021/acs.jpcb.3c08419

@Article{Gissinger24,
 author = {Jacob R. Gissinger, Ilia Nikiforov, Yaser Afshar, Brendon Waters, Moon-ki Choi, Daniel S. Karls, Alexander Stukowski, Wonpil Im, Hendrik Heinz, Axel Kohlmeyer, and Ellad B. Tadmor},
 title = {Type Label Framework for Bonded Force Fields in LAMMPS},
 journal = {J. Phys. Chem. B},
 year =    2024,
 volume =  128,
 number =  13,
 pages =   {3282â€“-3297}
}

CITE-CITE-CITE-CITE-CITE-CITE-CITE-CITE-CITE-CITE-CITE-CITE-CITE

Step         TotEng         PotEng         KinEng         Press           Temp          Volume        Density     c_max_pace_gamma
0  -4859.3795     -4859.3795      0             -15249.985      0              8084.0073      1.2433848      0.6550148
Loop time of 6.85217 on 28 procs for 340 steps with 1008 atoms

Minimization stats:
  Stopping criterion = force tolerance
  Energy initial, next-to-last, final =
  Force two-norm initial, final = 9.3928037 0.00045185036
  Force max component initial, final = 0.67588365 4.4621563e-05
  Final line search alpha, max atom move = 1 4.4621563e-05
  Iterations, force evaluations = 340 680

################## equilibration of main calculation
# Equilibrate to specified number of ice

fix             3 all nph tri 5000 5000 1
fix             4 all temp/csvr 280 280 0.1 62568
velocity 	all create 280 62568 dist gaussian

run 200000
Step         TotEng         PotEng         KinEng         Press           Temp          Volume        Density     c_max_pace_gamma
340  -4833.748      -4870.1942      36.44619      -3438.0976      280            8084.0073      1.2433848      0.6550148
Averages over the last 1001 of 2002 rows, steps 100400 to 200340:
TotEng PotEng KinEng Press Temp Volume Density c_max_pace_gamma
-4795.67 -4832.04 36.3648 4999.44 279.375 7940 1.26597 0.698042
Loop time of 2190.85 on 28 procs for 200000 steps with 1008 atoms

unfix 3
unfix 4

################## main calculation

dump 		3 all custom 1000 traj.lammpstrj id type element x y z
dump_modify     3 element H O

fix             3 all nph tri 5000 5000 1
fix             4 all temp/csvr 280 280 0.1 62568
velocity 	all create 280 62568 dist gaussian

run             200000
Step         TotEng         PotEng         KinEng         Press           Temp          Volume        Density     c_max_pace_gamma
200340  -4794.5855     -4831.0317      36.44619       5912.6422      280            7929.2429      1.2676534      0.73960998
Averages over the last 1001 of 2002 rows, steps 300400 to 400340:
TotEng PotEng KinEng Press Temp Volume Density c_max_pace_gamma
-4795.7 -4832.1 36.4089 4949.56 279.714 7935.78 1.26665 0.690987
Loop time of 2173.86 on 28 procs for 200000 steps with 1008 atoms

unfix		3
unfix		4
