LAMMPS (7 Feb 2024 - Update 1)
KOKKOS mode with Kokkos version 4.2.0 is enabled (src/KOKKOS/kokkos.cpp:72)
  will use up to 2 GPU(s) per node
package kokkos
package kokkos newton on neigh half

units		metal						## E in [eV], t in [ps], P in [10000 Pa], l in [A]
atom_style	atomic						## mass x y z vx vy vz

neighbor	0.5 bin						## neighbor list, skin = 0.5 Angstrom
neigh_modify	every 2 delay 10 check yes			## update of neighbor list

############################## main variables
variable        seed equal 43125

variable	temperature equal 295
variable	tempDamp equal 0.1

variable        pressure equal 100
variable        pressureDamp equal 1.0 				# This is 1 ps

##############################

read_data water.dat
Reading data file ...
  orthogonal box = (0 0 0) to (18.207572 23.629178 22.213196)
  reading atoms ...
  864 atoms

mass		1 1.008    # H
mass		2 15.9994  # O

pair_style	pace/extrapolation
ACE/AL version: 2023.11.25
pair_coeff	* * /home/cicn/cicn607503/pd/pot_dir/interim_potential_ladder_step_5.yaml /home/cicn/cicn607503/pd/pot_dir/interim_potential_ladder_step_5.asi H O
Loading /home/cicn/cicn607503/pd/pot_dir/interim_potential_ladder_step_5.yaml
Total number of basis functions
	H: 24 (r=1) 863 (r>1)
	O: 24 (r=1) 863 (r>1)
Mapping LAMMPS atom type #1(H) -> ACE species type #0
Mapping LAMMPS atom type #2(O) -> ACE species type #1
Loading ASI /home/cicn/cicn607503/pd/pot_dir/interim_potential_ladder_step_5.asi
LINEAR ASI is loaded

fix pace_gamma all pair 1000 pace/extrapolation gamma 1
compute max_pace_gamma all reduce max f_pace_gamma
variable dump_skip equal "c_max_pace_gamma < 10"

dump pace_dump all custom 1000 extrapolative_structures.dump id type x y z f_pace_gamma
dump_modify pace_dump skip v_dump_skip
dump_modify pace_dump element H O

variable max_pace_gamma equal c_max_pace_gamma

timestep	0.0005						## timestep = 0.0005*ps = 0.5 fs

thermo		100
thermo_style custom step etotal pe ke press temp vol density c_max_pace_gamma

min_style cg/kk
minimize 0.0 5.0e-4 10000 100000
Step         TotEng         PotEng         KinEng         Press           Temp          Volume        Density     c_max_pace_gamma
0  -4180.2701     -4180.2701      0              309.14185      0              9556.7825      0.90151666     0.58778247
Loop time of 0.626474 on 2 procs for 174 steps with 864 atoms

Minimization stats:
  Stopping criterion = force tolerance
  Energy initial, next-to-last, final =
  Force two-norm initial, final = 6.6050737 0.00039957885
  Force max component initial, final = 0.28115465 3.2573508e-05
  Final line search alpha, max atom move = 1 3.2573508e-05
  Iterations, force evaluations = 174 348

################## equilibration of main calculation
# Equilibrate to specified number of ice

fix             3 all nph aniso 100 100 1
fix             4 all temp/csvr 295 295 0.1 43125
velocity 	all create 295 43125 dist gaussian

run 200000
Step         TotEng         PotEng         KinEng         Press           Temp          Volume        Density     c_max_pace_gamma
174  -4149.4888     -4182.3964      32.907694     -2802.4471      295            9556.7825      0.90151666     0.58778247
Averages over the last 1001 of 2002 rows, steps 100200 to 200174:
TotEng PotEng KinEng Press Temp Volume Density c_max_pace_gamma
-4113.15 -4146.03 32.8794 61.5942 294.747 9596.76 0.897797 0.827607
Loop time of 501.082 on 2 procs for 200000 steps with 864 atoms

unfix 3
unfix 4

################## main calculation

dump 		3 all custom 1000 traj.lammpstrj id type element x y z
dump_modify     3 element H O

fix             3 all nph aniso 100 100 1
fix             4 all temp/csvr 295 295 0.1 43125
velocity 	all create 295 43125 dist gaussian

run             200000
Step         TotEng         PotEng         KinEng         Press           Temp          Volume        Density     c_max_pace_gamma
200174  -4114.3592     -4147.2669      32.907694      1083.1445      295            9582.3706      0.89910931     0.83531189
Averages over the last 1001 of 2002 rows, steps 300200 to 400174:
TotEng PotEng KinEng Press Temp Volume Density c_max_pace_gamma
-4113.26 -4146.12 32.8631 148.995 294.6 9585.02 0.898908 0.824776
Loop time of 500.601 on 2 procs for 200000 steps with 864 atoms

unfix		3
unfix		4
