LAMMPS (7 Feb 2024 - Update 1)
KOKKOS mode with Kokkos version 4.2.0 is enabled (src/KOKKOS/kokkos.cpp:72)
  will use up to 2 GPU(s) per node
package kokkos
package kokkos newton on neigh half

units		metal						## E in [eV], t in [ps], P in [10000 Pa], l in [A]
atom_style	atomic						## mass x y z vx vy vz

neighbor	0.5 bin						## neighbor list, skin = 0.5 Angstrom
neigh_modify	every 2 delay 10 check yes			## update of neighbor list

############################## main variables
variable        seed equal 8010

variable	temperature equal 290
variable	tempDamp equal 0.1

variable        pressure equal 0
variable        pressureDamp equal 1.0 				# This is 1 ps

##############################

read_data water.dat
Reading data file ...
  orthogonal box = (0 0 0) to (18.207572 23.629178 22.213196)
  reading atoms ...
  864 atoms

mass		1 1.008    # H
mass		2 15.9994  # O

pair_style	pace/extrapolation
ACE/AL version: 2023.11.25
pair_coeff	* * /home/cicn/cicn607503/pd/pot_dir/interim_potential_ladder_step_5.yaml /home/cicn/cicn607503/pd/pot_dir/interim_potential_ladder_step_5.asi H O
Loading /home/cicn/cicn607503/pd/pot_dir/interim_potential_ladder_step_5.yaml
Total number of basis functions
	H: 24 (r=1) 863 (r>1)
	O: 24 (r=1) 863 (r>1)
Mapping LAMMPS atom type #1(H) -> ACE species type #0
Mapping LAMMPS atom type #2(O) -> ACE species type #1
Loading ASI /home/cicn/cicn607503/pd/pot_dir/interim_potential_ladder_step_5.asi
LINEAR ASI is loaded

fix pace_gamma all pair 1000 pace/extrapolation gamma 1
compute max_pace_gamma all reduce max f_pace_gamma
variable dump_skip equal "c_max_pace_gamma < 10"

dump pace_dump all custom 1000 extrapolative_structures.dump id type x y z f_pace_gamma
dump_modify pace_dump skip v_dump_skip
dump_modify pace_dump element H O

variable max_pace_gamma equal c_max_pace_gamma

timestep	0.0005						## timestep = 0.0005*ps = 0.5 fs

thermo		100
thermo_style custom step etotal pe ke press temp vol density c_max_pace_gamma

min_style cg/kk
minimize 0.0 5.0e-4 10000 100000
Step         TotEng         PotEng         KinEng         Press           Temp          Volume        Density     c_max_pace_gamma
0  -4180.7249     -4180.7249      0              931.57303      0              9556.7825      0.90151666     0.51848278
Loop time of 0.666514 on 2 procs for 191 steps with 864 atoms

Minimization stats:
  Stopping criterion = force tolerance
  Energy initial, next-to-last, final =
  Force two-norm initial, final = 6.5563152 0.00040677855
  Force max component initial, final = 0.28078875 3.622429e-05
  Final line search alpha, max atom move = 1 3.622429e-05
  Iterations, force evaluations = 191 382

################## equilibration of main calculation
# Equilibrate to specified number of ice

fix             3 all nph aniso 0 0 1
fix             4 all temp/csvr 290 290 0.1 8010
velocity 	all create 290 8010 dist gaussian

run 200000
Step         TotEng         PotEng         KinEng         Press           Temp          Volume        Density     c_max_pace_gamma
191  -4150.5071     -4182.8571      32.349936     -2193.9181      290            9556.7825      0.90151666     0.51848278
Averages over the last 1001 of 2002 rows, steps 100200 to 200191:
TotEng PotEng KinEng Press Temp Volume Density c_max_pace_gamma
-4115.11 -4147.44 32.3307 -31.9864 289.827 9603.8 0.897142 0.723832
Loop time of 500.83 on 2 procs for 200000 steps with 864 atoms

unfix 3
unfix 4

################## main calculation

dump 		3 all custom 1000 traj.lammpstrj id type element x y z
dump_modify     3 element H O

fix             3 all nph aniso 0 0 1
fix             4 all temp/csvr 290 290 0.1 8010
velocity 	all create 290 8010 dist gaussian

run             200000
Step         TotEng         PotEng         KinEng         Press           Temp          Volume        Density     c_max_pace_gamma
200191  -4114.9285     -4147.2784      32.349936     -1575.9623      290            9630.3104      0.89463353     0.67627598
Averages over the last 1001 of 2002 rows, steps 300200 to 400191:
TotEng PotEng KinEng Press Temp Volume Density c_max_pace_gamma
-4115.1 -4147.45 32.3435 -19.8733 289.943 9601.19 0.897409 0.726526
Loop time of 501.734 on 2 procs for 200000 steps with 864 atoms

unfix		3
unfix		4
