LAMMPS (7 Feb 2024 - Update 1)
KOKKOS mode with Kokkos version 4.2.0 is enabled (src/KOKKOS/kokkos.cpp:72)
  will use up to 2 GPU(s) per node
package kokkos
package kokkos newton on neigh half

units		metal						## E in [eV], t in [ps], P in [10000 Pa], l in [A]
atom_style	atomic						## mass x y z vx vy vz

neighbor	0.5 bin						## neighbor list, skin = 0.5 Angstrom
neigh_modify	every 2 delay 10 check yes			## update of neighbor list

############################## main variables
variable        seed equal 52966

variable	temperature equal 285
variable	tempDamp equal 0.1

variable        pressure equal 1000
variable        pressureDamp equal 1.0 				# This is 1 ps

##############################

read_data water.dat
Reading data file ...
  orthogonal box = (0 0 0) to (18.207572 23.629178 22.213196)
  reading atoms ...
  864 atoms

mass		1 1.008    # H
mass		2 15.9994  # O

pair_style	pace/extrapolation
ACE/AL version: 2023.11.25
pair_coeff	* * /home/cicn/cicn607503/pd/pot_dir/interim_potential_ladder_step_5.yaml /home/cicn/cicn607503/pd/pot_dir/interim_potential_ladder_step_5.asi H O
Loading /home/cicn/cicn607503/pd/pot_dir/interim_potential_ladder_step_5.yaml
Total number of basis functions
	H: 24 (r=1) 863 (r>1)
	O: 24 (r=1) 863 (r>1)
Mapping LAMMPS atom type #1(H) -> ACE species type #0
Mapping LAMMPS atom type #2(O) -> ACE species type #1
Loading ASI /home/cicn/cicn607503/pd/pot_dir/interim_potential_ladder_step_5.asi
LINEAR ASI is loaded

fix pace_gamma all pair 1000 pace/extrapolation gamma 1
compute max_pace_gamma all reduce max f_pace_gamma
variable dump_skip equal "c_max_pace_gamma < 10"

dump pace_dump all custom 1000 extrapolative_structures.dump id type x y z f_pace_gamma
dump_modify pace_dump skip v_dump_skip
dump_modify pace_dump element H O

variable max_pace_gamma equal c_max_pace_gamma

timestep	0.0005						## timestep = 0.0005*ps = 0.5 fs

thermo		100
thermo_style custom step etotal pe ke press temp vol density c_max_pace_gamma

min_style cg/kk
minimize 0.0 5.0e-4 10000 100000
Step         TotEng         PotEng         KinEng         Press           Temp          Volume        Density     c_max_pace_gamma
0  -4180.7249     -4180.7249      0              931.57303      0              9556.7825      0.90151666     0.51848277
Loop time of 0.674586 on 2 procs for 191 steps with 864 atoms

Minimization stats:
  Stopping criterion = force tolerance
  Energy initial, next-to-last, final =
  Force two-norm initial, final = 6.5563152 0.00040677855
  Force max component initial, final = 0.28078875 3.6224289e-05
  Final line search alpha, max atom move = 1 3.6224289e-05
  Iterations, force evaluations = 191 382

################## equilibration of main calculation
# Equilibrate to specified number of ice

fix             3 all nph aniso 1000 1000 1
fix             4 all temp/csvr 285 285 0.1 52966
velocity 	all create 285 52966 dist gaussian

run 200000
Step         TotEng         PotEng         KinEng         Press           Temp          Volume        Density     c_max_pace_gamma
191  -4151.0649     -4182.8571      31.792179     -2256.2561      285            9556.7825      0.90151666     0.51848277
Averages over the last 1001 of 2002 rows, steps 100200 to 200191:
TotEng PotEng KinEng Press Temp Volume Density c_max_pace_gamma
-4116.7 -4148.49 31.7906 974.321 284.986 9482.12 0.908644 0.736593
Loop time of 501.906 on 2 procs for 200000 steps with 864 atoms

unfix 3
unfix 4

################## main calculation

dump 		3 all custom 1000 traj.lammpstrj id type element x y z
dump_modify     3 element H O

fix             3 all nph aniso 1000 1000 1
fix             4 all temp/csvr 285 285 0.1 52966
velocity 	all create 285 52966 dist gaussian

run             200000
Step         TotEng         PotEng         KinEng         Press           Temp          Volume        Density     c_max_pace_gamma
200191  -4116.9333     -4148.7255      31.792179      1610.3668      285            9438.8946      0.91277623     0.66764683
Averages over the last 1001 of 2002 rows, steps 300200 to 400191:
TotEng PotEng KinEng Press Temp Volume Density c_max_pace_gamma
-4116.62 -4148.4 31.7815 995.251 284.904 9478.11 0.909047 0.743344
Loop time of 502.159 on 2 procs for 200000 steps with 864 atoms

unfix		3
unfix		4
