LAMMPS (27 Jun 2024)
KOKKOS mode with Kokkos version 4.3.1 is enabled (src/KOKKOS/kokkos.cpp:72)
  will use up to 1 GPU(s) per node
package kokkos
package kokkos newton on neigh half

units		metal						## E in [eV], t in [ps], P in [10000 Pa], l in [A]
atom_style	atomic						## mass x y z vx vy vz

neighbor	0.5 bin						## neighbor list, skin = 0.5 Angstrom
neigh_modify	every 2 delay 10 check yes			## update of neighbor list

############################## main variables
variable        seed equal 16182

variable	temperature equal 470
variable	tempDamp equal 0.1

variable        pressure equal 30000
variable        pressureDamp equal 1.0 				# This is 1 ps

##############################

read_data water.dat
Reading data file ...
  orthogonal box = (0 0 0) to (20.240565 20.335495 35.959838)
  reading atoms ...
  2160 atoms

mass		1 1.008    # H
mass		2 15.9994  # O

pair_style	pace/extrapolation
ACE/AL version: 2023.11.25
pair_coeff	* * /pc2/users/a/acepdw01/work/phase_diagram/pot_dir/interim_potential_ladder_step_1.yaml /pc2/users/a/acepdw01/work/phase_diagram/pot_dir/interim_potential_ladder_step_1.asi H O
Loading /pc2/users/a/acepdw01/work/phase_diagram/pot_dir/interim_potential_ladder_step_1.yaml
Total number of basis functions
	H: 23 (r=1) 664 (r>1)
	O: 23 (r=1) 664 (r>1)
Mapping LAMMPS atom type #1(H) -> ACE species type #0
Mapping LAMMPS atom type #2(O) -> ACE species type #1
Loading ASI /pc2/users/a/acepdw01/work/phase_diagram/pot_dir/interim_potential_ladder_step_1.asi
LINEAR ASI is loaded

fix pace_gamma all pair 1000 pace/extrapolation gamma 1
compute max_pace_gamma all reduce max f_pace_gamma
variable dump_skip equal "c_max_pace_gamma < 10"

dump pace_dump all custom 1000 extrapolative_structures.dump id type x y z f_pace_gamma
dump_modify pace_dump skip v_dump_skip
dump_modify pace_dump element H O

variable max_pace_gamma equal c_max_pace_gamma

timestep	0.0005						## timestep = 0.0005*ps = 0.5 fs

thermo		100
thermo_style custom step etotal pe ke press temp vol density c_max_pace_gamma

min_style cg
minimize 0.0 5.0e-4 10000 100000

CITE-CITE-CITE-CITE-CITE-CITE-CITE-CITE-CITE-CITE-CITE-CITE-CITE

Your simulation uses code contributions which should be cited:

- Type Label Framework: https://doi.org/10.1021/acs.jpcb.3c08419

@Article{Gissinger24,
 author = {Jacob R. Gissinger, Ilia Nikiforov, Yaser Afshar, Brendon Waters, Moon-ki Choi, Daniel S. Karls, Alexander Stukowski, Wonpil Im, Hendrik Heinz, Axel Kohlmeyer, and Ellad B. Tadmor},
 title = {Type Label Framework for Bonded Force Fields in LAMMPS},
 journal = {J. Phys. Chem. B},
 year =    2024,
 volume =  128,
 number =  13,
 pages =   {3282â€“-3297}
}

CITE-CITE-CITE-CITE-CITE-CITE-CITE-CITE-CITE-CITE-CITE-CITE-CITE

Step         TotEng         PotEng         KinEng         Press           Temp          Volume        Density     c_max_pace_gamma
0  -10271.26      -10271.26       0              20515.587      0              14801.138      1.4552257      0.78421743
Averages over the last 10 of 19 rows, steps 900 to 1733:
TotEng PotEng KinEng Press Temp Volume Density c_max_pace_gamma
-10401.5 -10401.5 0 8977.42 0 14801.1 1.45523 0.837993
Loop time of 16.7656 on 1 procs for 1733 steps with 2160 atoms

Minimization stats:
  Stopping criterion = force tolerance
  Energy initial, next-to-last, final =
  Force two-norm initial, final = 71.431149 0.00048237807
  Force max component initial, final = 4.3904199 7.7310165e-05
  Final line search alpha, max atom move = 1 7.7310165e-05
  Iterations, force evaluations = 1733 3466

################## equilibration of main calculation
# Equilibrate to specified number of ice

#fix             1 all plumed plumedfile plumed.equil.dat outfile plumed.out
fix             3 all nph z 30000 30000 1
fix             4 all temp/csvr 470 470 0.1 16182
velocity 	all create 470 16182 dist gaussian

run 2000
Step         TotEng         PotEng         KinEng         Press           Temp          Volume        Density     c_max_pace_gamma
1733  -10270.371     -10401.535      131.16415      18459.349      470            14801.138      1.4552257      0.84396846
Averages over the last 11 of 22 rows, steps 2800 to 3733:
TotEng PotEng KinEng Press Temp Volume Density c_max_pace_gamma
-10131.8 -10259 127.205 30196.5 455.812 14847.3 1.45076 0.778861
Loop time of 11.2564 on 1 procs for 2000 steps with 2160 atoms

#unfix 1
unfix 3
unfix 4

################## main calculation

dump 		3 all custom 1000 traj.lammpstrj id type element x y z
dump_modify     3 element H O

#fix             1 all plumed plumedfile plumed.start.dat outfile plumed.out
fix             3 all nph z 30000 30000 1
fix             4 all temp/csvr 470 470 0.1 16182
velocity 	all create 470 16182 dist gaussian

run             20000
Step         TotEng         PotEng         KinEng         Press           Temp          Volume        Density     c_max_pace_gamma
3733  -10126.25      -10257.414      131.16415      26568.654      470            14951.274      1.4406128      0.77445866
Averages over the last 101 of 202 rows, steps 13800 to 23733:
TotEng PotEng KinEng Press Temp Volume Density c_max_pace_gamma
-10116.5 -10246.5 130.046 29673.6 465.992 15217.4 1.41549 0.808028
Loop time of 111.948 on 1 procs for 20000 steps with 2160 atoms

#unfix		1
unfix		3
unfix		4
